LTspice 24.1.9 for Windows
Circuit: C:\Users\ryanw\Desktop\projects\jhnvrw-seniordesign\simulations\spice models\bat15_03w\SPICE\D315_v7.TXT
Start Time: Thu Jun 11 17:36:27 2026
No analysis specified.