LTspice 24.1.9 for Windows
Circuit: C:\Users\ryanw\Desktop\projects\jhnvrw-seniordesign\simulations\voltage_double_rectifier.net
Start Time: Thu Jun 11 18:37:53 2026
solver = Normal
Maximum thread count: 16
tnom = 27
temp = 27
method = trap
.OP point found by inspection.
Total elapsed time: 0.749 seconds.

Files loaded:
C:\Users\ryanw\Desktop\projects\jhnvrw-seniordesign\simulations\voltage_double_rectifier.net
C:\Users\ryanw\Desktop\projects\jhnvrw-seniordesign\simulations\spice models\bat15_03w\SPICE\D315_v7.TXT

